feeder123_Large_Good_Good_927_1.glm
object node:1 {
name n1;
phases "ABCN";
voltage_A 2401.7771;
voltage_B -1200.8886-2080.000j;
voltage_C -1200.8886+2080.000j;
nominal_voltage 2401.7771;
}
object transformer {
name center_tap_1A;
phases AS;
from n1;
to triplex_node_1A;
configuration AS_config;
}
object triplex_node {
name triplex_node_1A;
phases AS;
nominal_voltage 120;
}
object triplex_line {
name triplex_line_1A_1;
phases AS;
from triplex_node_1A;
to triplex_node_1A_1;
length 100 ft;
configuration triplex_line_configuration_1;
}
object triplex_node {
name triplex_node_1A_1;
phases AS;
nominal_voltage 120;
}
object triplex_meter {
name triplex_meter_1A_1;
parent triplex_node_1A_1;
groupid triplex_node_meter1A;
phases AS;
nominal_voltage 120;
}
object house {
name house_1A_1;
parent triplex_meter_1A_1;
air_temperature 72;
mass_temperature 72;
heating_system_type GAS;
cooling_system_type ELECTRIC;
fan_type ONE_SPEED;
thermostat_control NONE;
system_mode COOL;
cooling_COP 4.1;
over_sizing_factor 0.2;
ceiling_height 8;
number_of_stories 2;
aspect_ratio 1.5;
floor_area 2352;
mass_internal_gain_fraction 0.5;
mass_solar_gain_fraction 0.5;
glass_type LOW_E_GLASS;
glazing_layers THREE;
airchange_per_hour 0.5;
Rroof 48;
Rdoors 11;
Rfloor 30;
Rwall 22;
window_frame INSULATED;
exterior_ceiling_fraction 1;
exterior_floor_fraction 1;
exterior_wall_fraction 1;
glazing_treatment HIGH_S;
interior_surface_heat_transfer_coeff 1.46;
interior_exterior_wall_ratio 1.5;
total_thermal_mass_per_floor_area 3.5;
number_of_doors 4;
window_exterior_transmission_coefficient 0.6;
window_wall_ratio 0.15;
object occupantload {
number_of_occupants 1;
occupancy_fraction 1.0;
};
object ZIPload {
name lights_1A_1;
schedule_skew -81;
base_power LIGHTS*2;
current_fraction 0;
impedance_fraction 1;
power_fraction 0;
current_pf 0;
impedance_pf 1;
power_pf 0;
heat_fraction 0.8;
};
object ZIPload {
name clotheswasher_1A_1;
schedule_skew -81;
base_power CLOTHESWASHER*1;
current_fraction 0;
impedance_fraction 0;
power_fraction 1;
current_pf 0.97;
impedance_pf 0.97;
power_pf 0.97;
heat_fraction 0.8;
};
object ZIPload {
name refrigerator_1A_1;
schedule_skew -81;
base_power REFRIGERATOR*1;
current_fraction 0;
impedance_fraction 0;
power_fraction 1;
current_pf 0.97;
impedance_pf 0.97;
power_pf 0.97;
heat_fraction 0.8;
};
object ZIPload {
name dryer_1A_1;
schedule_skew -81;
base_power DRYER*1;
current_fraction 0.1;
impedance_fraction 0.8;
power_fraction 0.1;
current_pf 0.9;
impedance_pf 1.0;
power_pf 0.9;
heat_fraction 0.8;
};
object ZIPload {
name freezer_1A_1;
schedule_skew -81;
base_power FREEZER*1;
current_fraction 0;
impedance_fraction 0;
power_fraction 1;
current_pf 0.97;
impedance_pf 0.97;
power_pf 0.97;
heat_fraction 0.8;
};
object ZIPload {
name range_1A_1;
schedule_skew -81;
base_power RANGE*1;
current_fraction 0;
impedance_fraction 1;
power_fraction 0;
current_pf 0;
impedance_pf 1;
power_pf 0;
heat_fraction 0.8;
};
object ZIPload {
name microwave_1A_1;
schedule_skew -81;
base_power MICROWAVE*1;
current_fraction 0;
impedance_fraction 0;
power_fraction 1;
current_pf 0.97;
impedance_pf 0.97;
power_pf 0.97;
heat_fraction 0.8;
};
}
object triplex_line {
name triplex_line_1A_2;
phases AS;
from triplex_node_1A;
to triplex_node_1A_2;
length 100 ft;
configuration triplex_line_configuration_1;
}
object triplex_node {
name triplex_node_1A_2;
phases AS;
nominal_voltage 120;
}
object triplex_meter {
name triplex_meter_1A_2;
parent triplex_node_1A_2;
groupid triplex_node_meter1A;
phases AS;
nominal_voltage 120;
}
object house {
name house_1A_2;
parent triplex_meter_1A_2;
air_temperature 72;
mass_temperature 72;
heating_system_type GAS;
cooling_system_type ELECTRIC;
fan_type ONE_SPEED;
thermostat_control NONE;
system_mode COOL;
cooling_COP 4.1;
over_sizing_factor 0.2;
ceiling_height 8;
number_of_stories 2;
aspect_ratio 1.5;
floor_area 2352;
mass_internal_gain_fraction 0.5;
mass_solar_gain_fraction 0.5;
glass_type LOW_E_GLASS;
glazing_layers THREE;
airchange_per_hour 0.5;
Rroof 48;
Rdoors 11;
Rfloor 30;
Rwall 22;
window_frame INSULATED;
exterior_ceiling_fraction 1;
exterior_floor_fraction 1;
exterior_wall_fraction 1;
glazing_treatment HIGH_S;
interior_surface_heat_transfer_coeff 1.46;
interior_exterior_wall_ratio 1.5;
total_thermal_mass_per_floor_area 3.5;
number_of_doors 4;
window_exterior_transmission_coefficient 0.6;
window_wall_ratio 0.15;
object occupantload {
number_of_occupants 1;
occupancy_fraction 1.0;
};
object ZIPload {
name lights_1A_2;
schedule_skew -749;
base_power LIGHTS*2;
current_fraction 0;
impedance_fraction 1;
power_fraction 0;
current_pf 0;
impedance_pf 1;
power_pf 0;
heat_fraction 0.8;
};
object ZIPload {
name clotheswasher_1A_2;
schedule_skew -749;
base_power CLOTHESWASHER*1;
current_fraction 0;
impedance_fraction 0;
power_fraction 1;
current_pf 0.97;
impedance_pf 0.97;
power_pf 0.97;
heat_fraction 0.8;
};
object ZIPload {
name refrigerator_1A_2;
schedule_skew -749;
base_power REFRIGERATOR*1;
current_fraction 0;
impedance_fraction 0;
power_fraction 1;
current_pf 0.97;
impedance_pf 0.97;
power_pf 0.97;
heat_fraction 0.8;
};
object ZIPload {
name dryer_1A_2;
schedule_skew -749;
base_power DRYER*1;
current_fraction 0.1;
impedance_fraction 0.8;
power_fraction 0.1;
current_pf 0.9;
impedance_pf 1.0;
power_pf 0.9;
heat_fraction 0.8;
};
object ZIPload {
name freezer_1A_2;
schedule_skew -749;
base_power FREEZER*1;
current_fraction 0;
impedance_fraction 0;
power_fraction 1;
current_pf 0.97;
impedance_pf 0.97;
power_pf 0.97;
heat_fraction 0.8;
};
object ZIPload {
name range_1A_2;
schedule_skew -749;
base_power RANGE*1;
current_fraction 0;
impedance_fraction 1;
power_fraction 0;
current_pf 0;
impedance_pf 1;
power_pf 0;
heat_fraction 0.8;
};
object ZIPload {
name microwave_1A_2;
schedule_skew -749;
base_power MICROWAVE*1;
current_fraction 0;
impedance_fraction 0;
power_fraction 1;
current_pf 0.97;
impedance_pf 0.97;
power_pf 0.97;
heat_fraction 0.8;
};
}
object triplex_line {
name triplex_line_1A_3;
phases AS;
from triplex_node_1A;
to triplex_node_1A_3;
length 100 ft;
configuration triplex_line_configuration_1;
}
object triplex_node {
name triplex_node_1A_3;
phases AS;
nominal_voltage 120;
}
object triplex_meter {
name triplex_meter_1A_3;
parent triplex_node_1A_3;
groupid triplex_node_meter1A;
phases AS;
nominal_voltage 120;
}
object house {
name house_1A_3;
parent triplex_meter_1A_3;
air_temperature 72;
mass_temperature 72;
heating_system_type GAS;
cooling_system_type ELECTRIC;
fan_type ONE_SPEED;
thermostat_control NONE;
system_mode COOL;
cooling_COP 4.1;
over_sizing_factor 0.2;
ceiling_height 8;
number_of_stories 2;
aspect_ratio 1.5;
floor_area 2352;
mass_internal_gain_fraction 0.5;
mass_solar_gain_fraction 0.5;
glass_type LOW_E_GLASS;
glazing_layers THREE;
airchange_per_hour 0.5;
Rroof 48;
Rdoors 11;
Rfloor 30;
Rwall 22;
window_frame INSULATED;
exterior_ceiling_fraction 1;
exterior_floor_fraction 1;
exterior_wall_fraction 1;
glazing_treatment HIGH_S;
interior_surface_heat_transfer_coeff 1.46;
interior_exterior_wall_ratio 1.5;
total_thermal_mass_per_floor_area 3.5;
number_of_doors 4;
window_exterior_transmission_coefficient 0.6;
window_wall_ratio 0.15;
object occupantload {
number_of_occupants 1;
occupancy_fraction 1.0;
};
object ZIPload {
name lights_1A_3;
schedule_skew 665;
base_power LIGHTS*2;
current_fraction 0;
impedance_fraction 1;
power_fraction 0;
current_pf 0;
impedance_pf 1;
power_pf 0;
heat_fraction 0.8;
};
object ZIPload {
name clotheswasher_1A_3;
schedule_skew 665;
base_power CLOTHESWASHER*1;
current_fraction 0;
impedance_fraction 0;
power_fraction 1;
current_pf 0.97;
impedance_pf 0.97;
power_pf 0.97;
heat_fraction 0.8;
};
object ZIPload {
name refrigerator_1A_3;
schedule_skew 665;
base_power REFRIGERATOR*1;
current_fraction 0;
impedance_fraction 0;
power_fraction 1;
current_pf 0.97;
impedance_pf 0.97;
power_pf 0.97;
heat_fraction 0.8;
};
object ZIPload {
name dryer_1A_3;
schedule_skew 665;
base_power DRYER*1;
current_fraction 0.1;
impedance_fraction 0.8;
power_fraction 0.1;
current_pf 0.9;
impedance_pf 1.0;
power_pf 0.9;
heat_fraction 0.8;
};
object ZIPload {
name freezer_1A_3;
schedule_skew 665;
base_power FREEZER*1;
current_fraction 0;
impedance_fraction 0;
power_fraction 1;
current_pf 0.97;
impedance_pf 0.97;
power_pf 0.97;
heat_fraction 0.8;
};
object ZIPload {
name range_1A_3;
schedule_skew 665;
base_power RANGE*1;
current_fraction 0;
impedance_fraction 1;
power_fraction 0;
current_pf 0;
impedance_pf 1;
power_pf 0;
heat_fraction 0.8;
};
object ZIPload {
name microwave_1A_3;
schedule_skew 665;
base_power MICROWAVE*1;
current_fraction 0;
impedance_fraction 0;
power_fraction 1;
current_pf 0.97;
impedance_pf 0.97;
power_pf 0.97;
heat_fraction 0.8;
};
}
object triplex_line {
name triplex_line_1A_4;
phases AS;
from triplex_node_1A;
to triplex_node_1A_4;
length 100 ft;
configuration triplex_line_configuration_1;
}
object triplex_node {
name triplex_node_1A_4;
phases AS;
nominal_voltage 120;
}
object triplex_meter {
name triplex_meter_1A_4;
parent triplex_node_1A_4;
groupid triplex_node_meter1A;
phases AS;
nominal_voltage 120;
}
object house {
name house_1A_4;
parent triplex_meter_1A_4;
air_temperature 72;
mass_temperature 72;
heating_system_type GAS;
cooling_system_type ELECTRIC;
fan_type ONE_SPEED;
thermostat_control NONE;
system_mode COOL;
cooling_COP 4.1;
over_sizing_factor 0.2;
ceiling_height 8;
number_of_stories 2;
aspect_ratio 1.5;
floor_area 2352;
mass_internal_gain_fraction 0.5;
mass_solar_gain_fraction 0.5;
glass_type LOW_E_GLASS;
glazing_layers THREE;
airchange_per_hour 0.5;
Rroof 48;
Rdoors 11;
Rfloor 30;
Rwall 22;
window_frame INSULATED;
exterior_ceiling_fraction 1;
exterior_floor_fraction 1;
exterior_wall_fraction 1;
glazing_treatment HIGH_S;
interior_surface_heat_transfer_coeff 1.46;
interior_exterior_wall_ratio 1.5;
total_thermal_mass_per_floor_area 3.5;
number_of_doors 4;
window_exterior_transmission_coefficient 0.6;
window_wall_ratio 0.15;
object occupantload {
number_of_occupants 1;
occupancy_fraction 1.0;
};
object ZIPload {
name lights_1A_4;
schedule_skew 530;
base_power LIGHTS*2;
current_fraction 0;
impedance_fraction 1;
power_fraction 0;
current_pf 0;
impedance_pf 1;
power_pf 0;
heat_fraction 0.8;
};
object ZIPload {
name clotheswasher_1A_4;
schedule_skew 530;
base_power CLOTHESWASHER*1;
current_fraction 0;
impedance_fraction 0;
power_fraction 1;
current_pf 0.97;
impedance_pf 0.97;
power_pf 0.97;
heat_fraction 0.8;
};
object ZIPload {
name refrigerator_1A_4;
schedule_skew 530;
base_power REFRIGERATOR*1;
current_fraction 0;
impedance_fraction 0;
power_fraction 1;
current_pf 0.97;
impedance_pf 0.97;
power_pf 0.97;
heat_fraction 0.8;
};
object ZIPload {
name dryer_1A_4;
schedule_skew 530;
base_power DRYER*1;
current_fraction 0.1;
impedance_fraction 0.8;
power_fraction 0.1;
current_pf 0.9;
impedance_pf 1.0;
power_pf 0.9;
heat_fraction 0.8;
};
object ZIPload {
name freezer_1A_4;
schedule_skew 530;
base_power FREEZER*1;
current_fraction 0;
impedance_fraction 0;
power_fraction 1;
current_pf 0.97;
impedance_pf 0.97;
power_pf 0.97;
heat_fraction 0.8;
};
object ZIPload {
name range_1A_4;
schedule_skew 530;
base_power RANGE*1;
current_fraction 0;
impedance_fraction 1;
power_fraction 0;
current_pf 0;
impedance_pf 1;
power_pf 0;
heat_fraction 0.8;
};
object ZIPload {
name microwave_1A_4;
schedule_skew 530;
base_power MICROWAVE*1;
current_fraction 0;
impedance_fraction 0;
power_fraction 1;
current_pf 0.97;
impedance_pf 0.97;
power_pf 0.97;
heat_fraction 0.8;
};
}
object triplex_line {
name triplex_line_1A_5;
phases AS;
from triplex_node_1A;
to triplex_node_1A_5;
length 100 ft;
configuration triplex_line_configuration_1;
}
object triplex_node {
name triplex_node_1A_5;
phases AS;
nominal_voltage 120;
}
object triplex_meter {
name triplex_meter_1A_5;
parent triplex_node_1A_5;
groupid triplex_node_meter1A;
phases AS;
nominal_voltage 120;
}
object house {
name house_1A_5;
parent triplex_meter_1A_5;
air_temperature 72;
mass_temperature 72;
heating_system_type GAS;
cooling_system_type ELECTRIC;
fan_type ONE_SPEED;
thermostat_control NONE;
system_mode COOL;
cooling_COP 4.1;
over_sizing_factor 0.2;
ceiling_height 8;
number_of_stories 2;
aspect_ratio 1.5;
floor_area 2352;
mass_internal_gain_fraction 0.5;
mass_solar_gain_fraction 0.5;
glass_type LOW_E_GLASS;
glazing_layers THREE;
airchange_per_hour 0.5;
Rroof 48;
Rdoors 11;
Rfloor 30;
Rwall 22;
window_frame INSULATED;
exterior_ceiling_fraction 1;
exterior_floor_fraction 1;
exterior_wall_fraction 1;
glazing_treatment HIGH_S;
interior_surface_heat_transfer_coeff 1.46;
interior_exterior_wall_ratio 1.5;
total_thermal_mass_per_floor_area 3.5;
number_of_doors 4;
window_exterior_transmission_coefficient 0.6;
window_wall_ratio 0.15;
object occupantload {
number_of_occupants 1;
occupancy_fraction 1.0;
};
object ZIPload {
name lights_1A_5;
schedule_skew -379;
base_power LIGHTS*2;
current_fraction 0;
impedance_fraction 1;
power_fraction 0;
current_pf 0;
impedance_pf 1;
power_pf 0;
heat_fraction 0.8;
};
object ZIPload {
name clotheswasher_1A_5;
schedule_skew -379;
base_power CLOTHESWASHER*1;
current_fraction 0;
impedance_fraction 0;
power_fraction 1;
current_pf 0.97;
impedance_pf 0.97;
power_pf 0.97;
heat_fraction 0.8;
};
object ZIPload {
name refrigerator_1A_5;
schedule_skew -379;
base_power REFRIGERATOR*1;
current_fraction 0;
impedance_fraction 0;
power_fraction 1;
current_pf 0.97;
impedance_pf 0.97;
power_pf 0.97;
heat_fraction 0.8;
};
object ZIPload {
name dryer_1A_5;
schedule_skew -379;
base_power DRYER*1;
current_fraction 0.1;
impedance_fraction 0.8;
power_fraction 0.1;
current_pf 0.9;
impedance_pf 1.0;
power_pf 0.9;
heat_fraction 0.8;
};
object ZIPload {
name freezer_1A_5;
schedule_skew -379;
base_power FREEZER*1;
current_fraction 0;
impedance_fraction 0;
power_fraction 1;
current_pf 0.97;
impedance_pf 0.97;
power_pf 0.97;
heat_fraction 0.8;
};
object ZIPload {
name range_1A_5;
schedule_skew -379;
base_power RANGE*1;
current_fraction 0;
impedance_fraction 1;
power_fraction 0;
current_pf 0;
impedance_pf 1;
power_pf 0;
heat_fraction 0.8;
};
object ZIPload {
name microwave_1A_5;
schedule_skew -379;
base_power MICROWAVE*1;
current_fraction 0;
impedance_fraction 0;
power_fraction 1;
current_pf 0.97;
impedance_pf 0.97;
power_pf 0.97;
heat_fraction 0.8;
};
}
object triplex_line {
name triplex_line_1A_6;
phases AS;
from triplex_node_1A;
to triplex_node_1A_6;
length 100 ft;
configuration triplex_line_configuration_1;
}
object triplex_node {
name triplex_node_1A_6;
phases AS;
nominal_voltage 120;
}
object triplex_meter {
name triplex_meter_1A_6;
parent triplex_node_1A_6;
groupid triplex_node_meter1A;
phases AS;
nominal_voltage 120;
}
object house {
name house_1A_6;
parent triplex_meter_1A_6;
air_temperature 72;
mass_temperature 72;
heating_system_type GAS;
cooling_system_type ELECTRIC;
fan_type ONE_SPEED;
thermostat_control NONE;
system_mode COOL;
cooling_COP 4.1;
over_sizing_factor 0.2;
ceiling_height 8;
number_of_stories 2;
aspect_ratio 1.5;
floor_area 2352;
mass_internal_gain_fraction 0.5;
mass_solar_gain_fraction 0.5;
glass_type LOW_E_GLASS;
glazing_layers THREE;
airchange_per_hour 0.5;
Rroof 48;
Rdoors 11;
Rfloor 30;
Rwall 22;
window_frame INSULATED;
exterior_ceiling_fraction 1;
exterior_floor_fraction 1;
exterior_wall_fraction 1;
glazing_treatment HIGH_S;
interior_surface_heat_transfer_coeff 1.46;
interior_exterior_wall_ratio 1.5;
total_thermal_mass_per_floor_area 3.5;
number_of_doors 4;
window_exterior_transmission_coefficient 0.6;
window_wall_ratio 0.15;
object occupantload {
number_of_occupants 1;
occupancy_fraction 1.0;
};
object ZIPload {
name lights_1A_6;
schedule_skew -777;
base_power LIGHTS*2;
current_fraction 0;
impedance_fraction 1;
power_fraction 0;
current_pf 0;
impedance_pf 1;
power_pf 0;
heat_fraction 0.8;
};
object ZIPload {
name clotheswasher_1A_6;
schedule_skew -777;
base_power CLOTHESWASHER*1;
current_fraction 0;
impedance_fraction 0;
power_fraction 1;
current_pf 0.97;
impedance_pf 0.97;
power_pf 0.97;
heat_fraction 0.8;
};
object ZIPload {
name refrigerator_1A_6;
schedule_skew -777;
base_power REFRIGERATOR*1;
current_fraction 0;
impedance_fraction 0;
power_fraction 1;
current_pf 0.97;
impedance_pf 0.97;
power_pf 0.97;
heat_fraction 0.8;
};
object ZIPload {
name dryer_1A_6;
schedule_skew -777;
base_power DRYER*1;
current_fraction 0.1;
impedance_fraction 0.8;
power_fraction 0.1;
current_pf 0.9;
impedance_pf 1.0;
power_pf 0.9;
heat_fraction 0.8;
};
object ZIPload {
name freezer_1A_6;
schedule_skew -777;
base_power FREEZER*1;
current_fraction 0;
impedance_fraction 0;
power_fraction 1;
current_pf 0.97;
impedance_pf 0.97;
power_pf 0.97;
heat_fraction 0.8;
};
object ZIPload {
name range_1A_6;
schedule_skew -777;
base_power RANGE*1;
current_fraction 0;
impedance_fraction 1;
power_fraction 0;
current_pf 0;
impedance_pf 1;
power_pf 0;
heat_fraction 0.8;
};
object ZIPload {
name microwave_1A_6;
schedule_skew -777;
base_power MICROWAVE*1;
current_fraction 0;
impedance_fraction 0;
power_fraction 1;
current_pf 0.97;
impedance_pf 0.97;
power_pf 0.97;
heat_fraction 0.8;
};
}
object triplex_line {
name triplex_line_1A_7;
phases AS;
from triplex_node_1A;
to triplex_node_1A_7;
length 100 ft;
configuration triplex_line_configuration_1;
}
object triplex_node {
name triplex_node_1A_7;
phases AS;
nominal_voltage 120;
}
object triplex_meter {
name triplex_meter_1A_7;
parent triplex_node_1A_7;
groupid triplex_node_meter1A;
phases AS;
nominal_voltage 120;
}
object house {
name house_1A_7;
parent triplex_meter_1A_7;
air_temperature 72;
mass_temperature 72;
heating_system_type GAS;
cooling_system_type ELECTRIC;
fan_type ONE_SPEED;
thermostat_control NONE;
system_mode COOL;
cooling_COP 4.1;
over_sizing_factor 0.2;
ceiling_height 8;
number_of_stories 2;
aspect_ratio 1.5;
floor_area 2352;
mass_internal_gain_fraction 0.5;
mass_solar_gain_fraction 0.5;
glass_type LOW_E_GLASS;
glazing_layers THREE;
airchange_per_hour 0.5;
Rroof 48;
Rdoors 11;
Rfloor 30;
Rwall 22;
window_frame INSULATED;
exterior_ceiling_fraction 1;
exterior_floor_fraction 1;
exterior_wall_fraction 1;
glazing_treatment HIGH_S;
interior_surface_heat_transfer_coeff 1.46;
interior_exterior_wall_ratio 1.5;
total_thermal_mass_per_floor_area 3.5;
number_of_doors 4;
window_exterior_transmission_coefficient 0.6;
window_wall_ratio 0.15;
object occupantload {
number_of_occupants 1;
occupancy_fraction 1.0;
};
object ZIPload {
name lights_1A_7;
schedule_skew 372;
base_power LIGHTS*2;
current_fraction 0;
impedance_fraction 1;
power_fraction 0;
current_pf 0;
impedance_pf 1;
power_pf 0;
heat_fraction 0.8;
};
object ZIPload {
name clotheswasher_1A_7;
schedule_skew 372;
base_power CLOTHESWASHER*1;
current_fraction 0;
impedance_fraction 0;
power_fraction 1;
current_pf 0.97;
impedance_pf 0.97;
power_pf 0.97;
heat_fraction 0.8;
};
object ZIPload {
name refrigerator_1A_7;
schedule_skew 372;
base_power REFRIGERATOR*1;
current_fraction 0;
impedance_fraction 0;
power_fraction 1;
current_pf 0.97;
impedance_pf 0.97;
power_pf 0.97;
heat_fraction 0.8;
};
object ZIPload {
name dryer_1A_7;
schedule_skew 372;
base_power DRYER*1;
current_fraction 0.1;
impedance_fraction 0.8;
power_fraction 0.1;
current_pf 0.9;
impedance_pf 1.0;
power_pf 0.9;
heat_fraction 0.8;
};
object ZIPload {
name freezer_1A_7;
schedule_skew 372;
base_power FREEZER*1;
current_fraction 0;
impedance_fraction 0;
power_fraction 1;
current_pf 0.97;
impedance_pf 0.97;
power_pf 0.97;
heat_fraction 0.8;
};
object ZIPload {
name range_1A_7;
schedule_skew 372;
base_power RANGE*1;
current_fraction 0;
impedance_fraction 1;
power_fraction 0;
current_pf 0;
impedance_pf 1;
power_pf 0;
heat_fraction 0.8;
};
object ZIPload {
name microwave_1A_7;
schedule_skew 372;
base_power MICROWAVE*1;
current_fraction 0;
impedance_fraction 0;
power_fraction 1;
current_pf 0.97;
impedance_pf 0.97;
power_pf 0.97;
heat_fraction 0.8;
};
}
object triplex_line {
name triplex_line_1A_8;
phases AS;
from triplex_node_1A;
to triplex_node_1A_8;
length 100 ft;
configuration triplex_line_configuration_1;
}
object triplex_node {
name triplex_node_1A_8;
phases AS;
nominal_voltage 120;
}
object triplex_meter {
name triplex_meter_1A_8;
parent triplex_node_1A_8;
groupid triplex_node_meter1A;
phases AS;
nominal_voltage 120;
}
object house {
name house_1A_8;
parent triplex_meter_1A_8;
air_temperature 72;
mass_temperature 72;
heating_system_type GAS;
cooling_system_type ELECTRIC;
fan_type ONE_SPEED;
thermostat_control NONE;
system_mode COOL;
cooling_COP 4.1;
over_sizing_factor 0.2;
ceiling_height 8;
number_of_stories 2;
aspect_ratio 1.5;
floor_area 2352;
mass_internal_gain_fraction 0.5;
mass_solar_gain_fraction 0.5;
glass_type LOW_E_GLASS;
glazing_layers THREE;
airchange_per_hour 0.5;
Rroof 48;
Rdoors 11;
Rfloor 30;
Rwall 22;
window_frame INSULATED;
exterior_ceiling_fraction 1;
exterior_floor_fraction 1;
exterior_wall_fraction 1;
glazing_treatment HIGH_S;
interior_surface_heat_transfer_coeff 1.46;
interior_exterior_wall_ratio 1.5;
total_thermal_mass_per_floor_area 3.5;
number_of_doors 4;
window_exterior_transmission_coefficient 0.6;
window_wall_ratio 0.15;
object occupantload {
number_of_occupants 1;
occupancy_fraction 1.0;
};
object ZIPload {
name lights_1A_8;
schedule_skew -146;
base_power LIGHTS*2;
current_fraction 0;
impedance_fraction 1;
power_fraction 0;
current_pf 0;
impedance_pf 1;
power_pf 0;
heat_fraction 0.8;
};
object ZIPload {
name clotheswasher_1A_8;
schedule_skew -146;
base_power CLOTHESWASHER*1;
current_fraction 0;
impedance_fraction 0;
power_fraction 1;
current_pf 0.97;
impedance_pf 0.97;
power_pf 0.97;
heat_fraction 0.8;
};
object ZIPload {
name refrigerator_1A_8;
schedule_skew -146;
base_power REFRIGERATOR*1;
current_fraction 0;
impedance_fraction 0;
power_fraction 1;
current_pf 0.97;
impedance_pf 0.97;
power_pf 0.97;
heat_fraction 0.8;
};
object ZIPload {
name dryer_1A_8;
schedule_skew -146;
base_power DRYER*1;
current_fraction 0.1;
impedance_fraction 0.8;
power_fraction 0.1;
current_pf 0.9;
impedance_pf 1.0;
power_pf 0.9;
heat_fraction 0.8;
};
object ZIPload {
name freezer_1A_8;
schedule_skew -146;
base_power FREEZER*1;
current_fraction 0;
impedance_fraction 0;
power_fraction 1;
current_pf 0.97;
impedance_pf 0.97;
power_pf 0.97;
heat_fraction 0.8;
};
object ZIPload {
name range_1A_8;
schedule_skew -146;
base_power RANGE*1;
current_fraction 0;
impedance_fraction 1;
power_fraction 0;
current_pf 0;
impedance_pf 1;
power_pf 0;
heat_fraction 0.8;
};
object ZIPload {
name microwave_1A_8;
schedule_skew -146;
base_power MICROWAVE*1;
current_fraction 0;
impedance_fraction 0;
power_fraction 1;
current_pf 0.97;
impedance_pf 0.97;
power_pf 0.97;
heat_fraction 0.8;
};
}
object triplex_line {
name triplex_line_1A_9;
phases AS;
from triplex_node_1A;
to triplex_node_1A_9;
length 100 ft;
configuration triplex_line_configuration_1;
}
object triplex_node {
name triplex_node_1A_9;
phases AS;
nominal_voltage 120;
}
object triplex_meter {
name triplex_meter_1A_9;
parent triplex_node_1A_9;
groupid triplex_node_meter1A;
phases AS;
nominal_voltage 120;
}
object house {
name house_1A_9;
parent triplex_meter_1A_9;
air_temperature 72;
mass_temperature 72;
heating_system_type GAS;
cooling_system_type ELECTRIC;
fan_type ONE_SPEED;
thermostat_control NONE;
system_mode COOL;
cooling_COP 4.1;
over_sizing_factor 0.2;
ceiling_height 8;
number_of_stories 2;
aspect_ratio 1.5;
floor_area 2352;
mass_internal_gain_fraction 0.5;
mass_solar_gain_fraction 0.5;
glass_type LOW_E_GLASS;
glazing_layers THREE;
airchange_per_hour 0.5;
Rroof 48;
Rdoors 11;
Rfloor 30;
Rwall 22;
window_frame INSULATED;
exterior_ceiling_fraction 1;
exterior_floor_fraction 1;
exterior_wall_fraction 1;
glazing_treatment HIGH_S;
interior_surface_heat_transfer_coeff 1.46;
interior_exterior_wall_ratio 1.5;
total_thermal_mass_per_floor_area 3.5;
number_of_doors 4;
window_exterior_transmission_coefficient 0.6;
window_wall_ratio 0.15;
object occupantload {
number_of_occupants 1;
occupancy_fraction 1.0;
};
object ZIPload {
name lights_1A_9;
schedule_skew -47;
base_power LIGHTS*2;
current_fraction 0;
impedance_fraction 1;
power_fraction 0;
current_pf 0;
impedance_pf 1;
power_pf 0;
heat_fraction 0.8;
};
object ZIPload {
name clotheswasher_1A_9;
schedule_skew -47;
base_power CLOTHESWASHER*1;
current_fraction 0;
impedance_fraction 0;
power_fraction 1;
current_pf 0.97;
impedance_pf 0.97;
power_pf 0.97;
heat_fraction 0.8;
};
object ZIPload {
name refrigerator_1A_9;
schedule_skew -47;
base_power REFRIGERATOR*1;
current_fraction 0;
impedance_fraction 0;
power_fraction 1;
current_pf 0.97;
impedance_pf 0.97;
power_pf 0.97;
heat_fraction 0.8;
};
object ZIPload {
name dryer_1A_9;
schedule_skew -47;
base_power DRYER*1;
current_fraction 0.1;
impedance_fraction 0.8;
power_fraction 0.1;
current_pf 0.9;
impedance_pf 1.0;
power_pf 0.9;
heat_fraction 0.8;
};
object ZIPload {
name freezer_1A_9;
schedule_skew -47;
base_power FREEZER*1;
current_fraction 0;
impedance_fraction 0;
power_fraction 1;
current_pf 0.97;
impedance_pf 0.97;
power_pf 0.97;
heat_fraction 0.8;
};
object ZIPload {
name range_1A_9;
schedule_skew -47;
base_power RANGE*1;
current_fraction 0;
impedance_fraction 1;
power_fraction 0;
current_pf 0;
impedance_pf 1;
power_pf 0;
heat_fraction 0.8;
};
object ZIPload {
name microwave_1A_9;
schedule_skew -47;
base_power MICROWAVE*1;
current_fraction 0;
impedance_fraction 0;
power_fraction 1;
current_pf 0.97;
impedance_pf 0.97;
power_pf 0.97;
heat_fraction 0.8;
};
}
object transformer {
name center_tap_1B;
phases BS;
from n1;
to triplex_node_1B;
configuration BS_config;
}
object triplex_node {
name triplex_node_1B;
phases BS;
nominal_voltage 120;
}
object transformer {
name center_tap_1C;
phases CS;
from n1;
to triplex_node_1C;
configuration CS_config;
}
object triplex_node {
name triplex_node_1C;
phases CS;
nominal_voltage 120;
}
object node:2 {
name n2;
phases "BN";
voltage_A 2401.7771;
voltage_B -1200.8886-2080.000j;
voltage_C -1200.8886+2080.000j;
nominal_voltage 2401.7771;
}
object transformer {
name center_tap_2B;
phases BS;
from n2;
to triplex_node_2B;
configuration BS_config;
}
object triplex_node {
name triplex_node_2B;
phases BS;
nominal_voltage 120;
}
object triplex_line {
name triplex_line_2B_1;
phases BS;
from triplex_node_2B;
to triplex_node_2B_1;
length 100 ft;
configuration triplex_line_configuration_1;
}
object triplex_node {
name triplex_node_2B_1;
phases BS;
nominal_voltage 120;
}
object triplex_meter {
name triplex_meter_2B_1;
parent triplex_node_2B_1;
groupid triplex_node_meter2B;
phases BS;
nominal_voltage 120;
}
object house {
name house_2B_1;
parent triplex_meter_2B_1;
air_temperature 72;
mass_temperature 72;
heating_system_type GAS;
cooling_system_type ELECTRIC;
fan_type ONE_SPEED;
thermostat_control NONE;
system_mode COOL;
cooling_COP 4.1;
over_sizing_factor 0.2;
ceiling_height 8;
number_of_stories 2;
aspect_ratio 1.5;
floor_area 2352;
mass_internal_gain_fraction 0.5;
mass_solar_gain_fraction 0.5;
glass_type LOW_E_GLASS;
glazing_layers THREE;
airchange_per_hour 0.5;
Rroof 48;
Rdoors 11;
Rfloor 30;
Rwall 22;
window_frame INSULATED;
exterior_ceiling_fraction 1;
exterior_floor_fraction 1;
exterior_wall_fraction 1;
glazing_treatment HIGH_S;
interior_surface_heat_transfer_coeff 1.46;
interior_exterior_wall_ratio 1.5;
total_thermal_mass_per_floor_area 3.5;
number_of_doors 4;
window_exterior_transmission_coefficient 0.6;
window_wall_ratio 0.15;
object occupantload {
number_of_occupants 1;
occupancy_fraction 1.0;
};
object ZIPload {
name lights_2B_1;
schedule_skew -883;
base_power LIGHTS*2;
current_fraction 0;
impedance_fraction 1;
power_fraction 0;
current_pf 0;
impedance_pf 1;
power_pf 0;
heat_fraction 0.8;
};
object ZIPload {
name clotheswasher_2B_1;
schedule_skew -883;
base_power CLOTHESWASHER*1;
current_fraction 0;
impedance_fraction 0;
power_fraction 1;
current_pf 0.97;
impedance_pf 0.97;
power_pf 0.97;
heat_fraction 0.8;
};
object ZIPload {
name refrigerator_2B_1;
schedule_skew -883;
base_power REFRIGERATOR*1;
current_fraction 0;
impedance_fraction 0;
power_fraction 1;
current_pf 0.97;
impedance_pf 0.97;
power_pf 0.97;
heat_fraction 0.8;
};
object ZIPload {
name dryer_2B_1;
schedule_skew -883;
base_power DRYER*1;
current_fraction 0.1;
impedance_fraction 0.8;
power_fraction 0.1;
current_pf 0.9;
impedance_pf 1.0;
power_pf 0.9;
heat_fraction 0.8;
};
object ZIPload {
name freezer_2B_1;
schedule_skew -883;
base_power FREEZER*1;
current_fraction 0;
impedance_fraction 0;
power_fraction 1;
current_pf 0.97;
impedance_pf 0.97;
power_pf 0.97;
heat_fraction 0.8;
};
object ZIPload {
name range_2B_1;
schedule_skew -883;
base_power RANGE*1;
current_fraction 0;
impedance_fraction 1;
power_fraction 0;
current_pf 0;
impedance_pf 1;
power_pf 0;
heat_fraction 0.8;
};
object ZIPload {
name microwave_2B_1;
schedule_skew -883;
base_power MICROWAVE*1;
current_fraction 0;
impedance_fraction 0;
power_fraction 1;
current_pf 0.97;
impedance_pf 0.97;
power_pf 0.97;
heat_fraction 0.8;
};
}
object triplex_line {
name triplex_line_2B_2;
phases BS;
from triplex_node_2B;
to triplex_node_2B_2;
length 100 ft;
configuration triplex_line_configuration_1;
}
object triplex_node {
name triplex_node_2B_2;
phases BS;
nominal_voltage 120;
}
object triplex_meter {
name triplex_meter_2B_2;
parent triplex_node_2B_2;
groupid triplex_node_meter2B;
phases BS;
nominal_voltage 120;
}
object house {
name house_2B_2;
parent triplex_meter_2B_2;
air_temperature 72;
mass_temperature 72;
heating_system_type GAS;
cooling_system_type ELECTRIC;
fan_type ONE_SPEED;
thermostat_control NONE;
system_mode COOL;
cooling_COP 4.1;
over_sizing_factor 0.2;
ceiling_height 8;
number_of_stories 2;
aspect_ratio 1.5;
floor_area 2352;
mass_internal_gain_fraction 0.5;
mass_solar_gain_fraction 0.5;
glass_type LOW_E_GLASS;
glazing_layers THREE;
airchange_per_hour 0.5;
Rroof 48;
Rdoors 11;
Rfloor 30;
Rwall 22;
window_frame INSULATED;
exterior_ceiling_fraction 1;
exterior_floor_fraction 1;
exterior_wall_fraction 1;
glazing_treatment HIGH_S;
interior_surface_heat_transfer_coeff 1.46;
interior_exterior_wall_ratio 1.5;
total_thermal_mass_per_floor_area 3.5;
number_of_doors 4;
window_exterior_transmission_coefficient 0.6;
window_wall_ratio 0.15;
object occupantload {
number_of_occupants 1;
occupancy_fraction 1.0;
};
object ZIPload {
name lights_2B_2;
schedule_skew 280;
base_power LIGHTS*2;
current_fraction 0;
impedance_fraction 1;
power_fraction 0;
current_pf 0;
impedance_pf 1;
power_pf 0;
heat_fraction 0.8;
};
object ZIPload {
name clotheswasher_2B_2;
schedule_skew 280;
base_power CLOTHESWASHER*1;
current_fraction 0;
impedance_fraction 0;
power_fraction 1;
current_pf 0.97;
impedance_pf 0.97;
power_pf 0.97;
heat_fraction 0.8;
};
object ZIPload {
name refrigerator_2B_2;
schedule_skew 280;
base_power REFRIGERATOR*1;
current_fraction 0;
impedance_fraction 0;
power_fraction 1;
current_pf 0.97;
impedance_pf 0.97;
power_pf 0.97;
heat_fraction 0.8;
};
object ZIPload {
name dryer_2B_2;
schedule_skew 280;
base_power DRYER*1;
current_fraction 0.1;
impedance_fraction 0.8;
power_fraction 0.1;
current_pf 0.9;
impedance_pf 1.0;
power_pf 0.9;
heat_fraction 0.8;
};
object ZIPload {
name freezer_2B_2;
schedule_skew 280;
base_power FREEZER*1;
current_fraction 0;
impedance_fraction 0;
power_fraction 1;
current_pf 0.97;
impedance_pf 0.97;
power_pf 0.97;
heat_fraction 0.8;
};
object ZIPload {
name range_2B_2;
schedule_skew 280;
base_power RANGE*1;
current_fraction 0;
impedance_fraction 1;
power_fraction 0;
current_pf 0;
impedance_pf 1;
power_pf 0;
heat_fraction 0.8;
};
object ZIPload {
name microwave_2B_2;
schedule_skew 280;
base_power MICROWAVE*1;
current_fraction 0;
impedance_fraction 0;
power_fraction 1;
current_pf 0.97;
impedance_pf 0.97;
power_pf 0.97;
heat_fraction 0.8;
};
}
object triplex_line {
name triplex_line_2B_3;
phases BS;
from triplex_node_2B;
to triplex_node_2B_3;
length 100 ft;
configuration triplex_line_configuration_1;
}
object triplex_node {
name triplex_node_2B_3;
phases BS;
nominal_voltage 120;
}
object triplex_meter {
name triplex_meter_2B_3;
parent triplex_node_2B_3;
groupid triplex_node_meter2B;
phases BS;
nominal_voltage 120;
}
object house {
name house_2B_3;
parent triplex_meter_2B_3;
air_temperature 72;
mass_temperature 72;
heating_system_type GAS;
cooling_system_type ELECTRIC;
fan_type ONE_SPEED;
thermostat_control NONE;
system_mode COOL;
cooling_COP 4.1;
over_sizing_factor 0.2;
ceiling_height 8;
number_of_stories 2;
aspect_ratio 1.5;
floor_area 2352;
mass_internal_gain_fraction 0.5;
mass_solar_gain_fraction 0.5;
glass_type LOW_E_GLASS;
glazing_layers THREE;
airchange_per_hour 0.5;
Rroof 48;
Rdoors 11;
Rfloor 30;
Rwall 22;
window_frame INSULATED;
exterior_ceiling_fraction 1;
exterior_floor_fraction 1;
exterior_wall_fraction 1;
glazing_treatment HIGH_S;
interior_surface_heat_transfer_coeff 1.46;
interior_exterior_wall_ratio 1.5;
total_thermal_mass_per_floor_area 3.5;
number_of_doors 4;
window_exterior_transmission_coefficient 0.6;
window_wall_ratio 0.15;
object occupantload {
number_of_occupants 1;
occupancy_fraction 1.0;
};
object ZIPload {
name lights_2B_3;
schedule_skew 505;
base_power LIGHTS*2;
current_fraction 0;
impedance_fraction 1;
power_fraction 0;
current_pf 0;
impedance_pf 1;
power_pf 0;
heat_fraction 0.8;
};
object ZIPload {
name clotheswasher_2B_3;
schedule_skew 505;
base_power CLOTHESWASHER*1;
current_fraction 0;
impedance_fraction 0;
power_fraction 1;
current_pf 0.97;
impedance_pf 0.97;
power_pf 0.97;
heat_fraction 0.8;
};
object ZIPload {
name refrigerator_2B_3;
schedule_skew 505;
base_power REFRIGERATOR*1;
current_fraction 0;
impedance_fraction 0;
power_fraction 1;
current_pf 0.97;
impedance_pf 0.97;
power_pf 0.97;
heat_fraction 0.8;
};
object ZIPload {
name dryer_2B_3;
schedule_skew 505;
base_power DRYER*1;
current_fraction 0.1;
impedance_fraction 0.8;
power_fraction 0.1;
current_pf 0.9;
impedance_pf 1.0;
power_pf 0.9;
heat_fraction 0.8;
};
object ZIPload {
name freezer_2B_3;
schedule_skew 505;
base_power FREEZER*1;
current_fraction 0;
impedance_fraction 0;
power_fraction 1;
current_pf 0.97;
impedance_pf 0.97;
power_pf 0.97;
heat_fraction 0.8;
};
object ZIPload {
name range_2B_3;
schedule_skew 505;
base_power RANGE*1;
current_fraction 0;
impedance_fraction 1;
power_fraction 0;
current_pf 0;
impedance_pf 1;
power_pf 0;
heat_fraction 0.8;
};
object ZIPload {
name microwave_2B_3;
schedule_skew 505;
base_power MICROWAVE*1;
current_fraction 0;
impedance_fraction 0;
power_fraction 1;
current_pf 0.97;
impedance_pf 0.97;
power_pf 0.97;
heat_fraction 0.8;
};
}
object triplex_line {
name triplex_line_2B_4;
phases BS;
from triplex_node_2B;
to triplex_node_2B_4;
length 100 ft;
configuration triplex_line_configuration_1;
}
object triplex_node {
name triplex_node_2B_4;
phases BS;
nominal_voltage 120;
}
object triplex_meter {
name triplex_meter_2B_4;
parent triplex_node_2B_4;
groupid triplex_node_meter2B;
phases BS;
nominal_voltage 120;
}
object house {
name house_2B_4;
parent triplex_meter_2B_4;
air_temperature 72;
mass_temperature 72;
heating_system_type GAS;
cooling_system_type ELECTRIC;
fan_type ONE_SPEED;
thermostat_control NONE;
system_mode COOL;
cooling_COP 4.1;
over_sizing_factor 0.2;
ceiling_height 8;
number_of_stories 2;
aspect_ratio 1.5;
floor_area 2352;
mass_internal_gain_fraction 0.5;
mass_solar_gain_fraction 0.5;
glass_type LOW_E_GLASS;
glazing_layers THREE;
airchange_per_hour 0.5;
Rroof 48;
Rdoors 11;
Rfloor 30;
Rwall 22;
window_frame INSULATED;
exterior_ceiling_fraction 1;
exterior_floor_fraction 1;
exterior_wall_fraction 1;
glazing_treatment HIGH_S;
interior_surface_heat_transfer_coeff 1.46;
interior_exterior_wall_ratio 1.5;
total_thermal_mass_per_floor_area 3.5;
number_of_doors 4;
window_exterior_transmission_coefficient 0.6;
window_wall_ratio 0.15;
object occupantload {
number_of_occupants 1;
occupancy_fraction 1.0;
};
object ZIPload {
name lights_2B_4;
schedule_skew 149;
base_power LIGHTS*2;
current_fraction 0;
impedance_fraction 1;
power_fraction 0;
current_pf 0;
impedance_pf 1;
power_pf 0;
heat_fraction 0.8;
};
object ZIPload {
name clotheswasher_2B_4;
schedule_skew 149;
base_power CLOTHESWASHER*1;
current_fraction 0;
impedance_fraction 0;
power_fraction 1;
current_pf 0.97;
impedance_pf 0.97;
power_pf 0.97;
heat_fraction 0.8;
};
object ZIPload {
name refrigerator_2B_4;
schedule_skew 149;
base_power REFRIGERATOR*1;
current_fraction 0;
impedance_fraction 0;
power_fraction 1;
current_pf 0.97;
impedance_pf 0.97;
power_pf 0.97;
heat_fraction 0.8;
};
object ZIPload {
name dryer_2B_4;
schedule_skew 149;
base_power DRYER*1;
current_fraction 0.1;
impedance_fraction 0.8;
power_fraction 0.1;
current_pf 0.9;
impedance_pf 1.0;
power_pf 0.9;
heat_fraction 0.8;
};
object ZIPload {
name freezer_2B_4;
schedule_skew 149;
base_power FREEZER*1;
current_fraction 0;
impedance_fraction 0;
power_fraction 1;
current_pf 0.97;
impedance_pf 0.97;
power_pf 0.97;
heat_fraction 0.8;
};
object ZIPload {
name range_2B_4;
schedule_skew 149;
base_power RANGE*1;
current_fraction 0;
impedance_fraction 1;
power_fraction 0;
current_pf 0;
impedance_pf 1;
power_pf 0;
heat_fraction 0.8;
};
object ZIPload {
name microwave_2B_4;
schedule_skew 149;
base_power MICROWAVE*1;
current_fraction 0;
impedance_fraction 0;
power_fraction 1;
current_pf 0.97;
impedance_pf 0.97;
power_pf 0.97;
heat_fraction 0.8;
};
}
object triplex_line {
name triplex_line_2B_5;
phases BS;
from triplex_node_2B;
to triplex_node_2B_5;
length 100 ft;
configuration triplex_line_configuration_1;
}
object triplex_node {
name triplex_node_2B_5;
phases BS;
nominal_voltage 120;
}
object triplex_meter {
name triplex_meter_2B_5;
parent triplex_node_2B_5;
groupid triplex_node_meter2B;
phases BS;
nominal_voltage 120;
}
object house {
name house_2B_5;
parent triplex_meter_2B_5;
air_temperature 72;
mass_temperature 72;
heating_system_type GAS;
cooling_system_type ELECTRIC;
fan_type ONE_SPEED;
thermostat_control NONE;
system_mode COOL;
cooling_COP 4.1;
over_sizing_factor 0.2;
ceiling_height 8;
number_of_stories 2;
aspect_ratio 1.5;
floor_area 2352;
mass_internal_gain_fraction 0.5;
mass_solar_gain_fraction 0.5;
glass_type LOW_E_GLASS;
glazing_layers THREE;
airchange_per_hour 0.5;
Rroof 48;
Rdoors 11;
Rfloor 30;
Rwall 22;
window_frame INSULATED;
exterior_ceiling_fraction 1;
exterior_floor_fraction 1;
exterior_wall_fraction 1;
glazing_treatment HIGH_S;
interior_surface_heat_transfer_coeff 1.46;
interior_exterior_wall_ratio 1.5;
total_thermal_mass_per_floor_area 3.5;
number_of_doors 4;
window_exterior_transmission_coefficient 0.6;
window_wall_ratio 0.15;
object occupantload {
number_of_occupants 1;
occupancy_fraction 1.0;
};
object ZIPload {
name lights_2B_5;
schedule_skew -971;
base_power LIGHTS*2;
current_fraction 0;
impedance_fraction 1;
power_fraction 0;
current_pf 0;
impedance_pf 1;
power_pf 0;
heat_fraction 0.8;
};
object ZIPload {
name clotheswasher_2B_5;
schedule_skew -971;
base_power CLOTHESWASHER*1;
current_fraction 0;
impedance_fraction 0;
power_fraction 1;
current_pf 0.97;
impedance_pf 0.97;
power_pf 0.97;
heat_fraction 0.8;
};
object ZIPload {
name refrigerator_2B_5;
schedule_skew -971;
base_power REFRIGERATOR*1;
current_fraction 0;
impedance_fraction 0;
power_fraction 1;
current_pf 0.97;
impedance_pf 0.97;
power_pf 0.97;
heat_fraction 0.8;
};
object ZIPload {
name dryer_2B_5;
schedule_skew -971;
base_power DRYER*1;
current_fraction 0.1;
impedance_fraction 0.8;
power_fraction 0.1;
current_pf 0.9;
impedance_pf 1.0;
power_pf 0.9;
heat_fraction 0.8;
};
object ZIPload {
name freezer_2B_5;
schedule_skew -971;
base_power FREEZER*1;
current_fraction 0;
impedance_fraction 0;
power_fraction 1;
current_pf 0.97;
impedance_pf 0.97;
power_pf 0.97;
heat_fraction 0.8;
};
object ZIPload {
name range_2B_5;
schedule_skew -971;
base_power RANGE*1;
current_fraction 0;
impedance_fraction 1;
power_fraction 0;
current_pf 0;
impedance_pf 1;
power_pf 0;
heat_fraction 0.8;
};
object ZIPload {
name microwave_2B_5;
schedule_skew -971;
base_power MICROWAVE*1;
current_fraction 0;
impedance_fraction 0;
power_fraction 1;
current_pf 0.97;
impedance_pf 0.97;
power_pf 0.97;
heat_fraction 0.8;
};
}
object node:4 {
name n4;
phases "CN";
voltage_A 2401.7771;
voltage_B -1200.8886-2080.000j;
voltage_C -1200.8886+2080.000j;
nominal_voltage 2401.7771;
}
object transformer {
name center_tap_4C;
phases CS;
from n4;
to triplex_node_4C;
configuration CS_config;
}
object triplex_node {
name triplex_node_4C;
phases CS;
nominal_voltage 120;
}
object triplex_line {
name triplex_line_4C_1;
phases CS;
from triplex_node_4C;
to triplex_node_4C_1;
length 100 ft;
configuration triplex_line_configuration_1;
}
object triplex_node {
name triplex_node_4C_1;
phases CS;
nominal_voltage 120;
}
object triplex_meter {
name triplex_meter_4C_1;
parent triplex_node_4C_1;
groupid triplex_node_meter4C;
phases CS;
nominal_voltage 120;
}
object house {
name house_4C_1;
parent triplex_meter_4C_1;
air_temperature 72;
mass_temperature 72;
heating_system_type GAS;
cooling_system_type ELECTRIC;
fan_type ONE_SPEED;
thermostat_control NONE;
system_mode COOL;
cooling_COP 4.1;
over_sizing_factor 0.2;
ceiling_height 8;
number_of_stories 2;
aspect_ratio 1.5;
floor_area 2352;
mass_internal_gain_fraction 0.5;
mass_solar_gain_fraction 0.5;
glass_type LOW_E_GLASS;
glazing_layers THREE;
airchange_per_hour 0.5;
Rroof 48;
Rdoors 11;
Rfloor 30;
Rwall 22;
window_frame INSULATED;
exterior_ceiling_fraction 1;
exterior_floor_fraction 1;
exterior_wall_fraction 1;
glazing_treatment HIGH_S;
interior_surface_heat_transfer_coeff 1.46;
interior_exterior_wall_ratio 1.5;
total_thermal_mass_per_floor_area 3.5;
number_of_doors 4;
window_exterior_transmission_coefficient 0.6;
window_wall_ratio 0.15;
object occupantload {
number_of_occupants 1;
occupancy_fraction 1.0;
};
object ZIPload {
name lights_4C_1;
schedule_skew 748;
base_power LIGHTS*2;
current_fraction 0;
impedance_fraction 1;
power_fraction 0;
current_pf 0;
impedance_pf 1;
power_pf 0;
heat_fraction 0.8;
};
object ZIPload {
name clotheswasher_4C_1;
schedule_skew 748;
base_power CLOTHESWASHER*1;
current_fraction 0;
impedance_fraction 0;
power_fraction 1;
current_pf 0.97;
impedance_pf 0.97;
power_pf 0.97;
heat_fraction 0.8;
};
object ZIPload {
name refrigerator_4C_1;
schedule_skew 748;
base_power REFRIGERATOR*1;
current_fraction 0;
impedance_fraction 0;
power_fraction 1;
current_pf 0.97;
impedance_pf 0.97;
power_pf 0.97;
heat_fraction 0.8;
};
object ZIPload {
name dryer_4C_1;
schedule_skew 748;
base_power DRYER*1;
current_fraction 0.1;
impedance_fraction 0.8;
power_fraction 0.1;
current_pf 0.9;
impedance_pf 1.0;
power_pf 0.9;
heat_fraction 0.8;
};
object ZIPload {
name freezer_4C_1;
schedule_skew 748;
base_power FREEZER*1;
current_fraction 0;
impedance_fraction 0;
power_fraction 1;
current_pf 0.97;
impedance_pf 0.97;
power_pf 0.97;
heat_fraction 0.8;
};
object ZIPload {
name range_4C_1;
schedule_skew 748;
base_power RANGE*1;
current_fraction 0;
impedance_fraction 1;
power_fraction 0;
current_pf 0;
impedance_pf 1;
power_pf 0;
heat_fraction 0.8;
};
object ZIPload {
name microwave_4C_1;
schedule_skew 748;
base_power MICROWAVE*1;
current_fraction 0;
impedance_fraction 0;
power_fraction 1;
current_pf 0.97;
impedance_pf 0.97;
power_pf 0.97;
heat_fraction 0.8;
};
}
object triplex_line {
name triplex_line_4C_2;
phases CS;
from triplex_node_4C;
to triplex_node_4C_2;
length 100 ft;
configuration triplex_line_configuration_1;
}
object triplex_node {
name triplex_node_4C_2;
phases CS;
nominal_voltage 120;
}
object triplex_meter {
name triplex_meter_4C_2;
parent triplex_node_4C_2;
groupid triplex_node_meter4C;
phases CS;
nominal_voltage 120;
}
object house {
name house_4C_2;
parent triplex_meter_4C_2;
air_temperature 72;
mass_temperature 72;
heating_system_type GAS;
cooling_system_type ELECTRIC;
fan_type ONE_SPEED;
thermostat_control NONE;
system_mode COOL;
cooling_COP 4.1;
over_sizing_factor 0.2;
ceiling_height 8;
number_of_stories 2;
aspect_ratio 1.5;
floor_area 2352;
mass_internal_gain_fraction 0.5;
mass_solar_gain_fraction 0.5;
glass_type LOW_E_GLASS;
glazing_layers THREE;
airchange_per_hour 0.5;
Rroof 48;
Rdoors 11;
Rfloor 30;
Rwall 22;
window_frame INSULATED;
exterior_ceiling_fraction 1;
exterior_floor_fraction 1;
exterior_wall_fraction 1;
glazing_treatment HIGH_S;
interior_surface_heat_transfer_coeff 1.46;
interior_exterior_wall_ratio 1.5;
total_thermal_mass_per_floor_area 3.5;
number_of_doors 4;
window_exterior_transmission_coefficient 0.6;
window_wall_ratio 0.15;
object occupantload {
number_of_occupants 1;
occupancy_fraction 1.0;
};
object ZIPload {
name lights_4C_2;
schedule_skew -838;
base_power LIGHTS*2;
current_fraction 0;
impedance_fraction 1;
power_fraction 0;
current_pf 0;
impedance_pf 1;
power_pf 0;
heat_fraction 0.8;
};
object ZIPload {
name clotheswasher_4C_2;
schedule_skew -838;
base_power CLOTHESWASHER*1;
current_fraction 0;
impedance_fraction 0;
power_fraction 1;
current_pf 0.97;
impedance_pf 0.97;
power_pf 0.97;
heat_fraction 0.8;
};
object ZIPload {
name refrigerator_4C_2;
schedule_skew -838;
base_power REFRIGERATOR*1;
current_fraction 0;
impedance_fraction 0;
power_fraction 1;
current_pf 0.97;
impedance_pf 0.97;
power_pf 0.97;
heat_fraction 0.8;
};
object ZIPload {
name dryer_4C_2;
schedule_skew -838;
base_power DRYER*1;
current_fraction 0.1;
impedance_fraction 0.8;
power_fraction 0.1;
current_pf 0.9;
impedance_pf 1.0;
power_pf 0.9;
heat_fraction 0.8;
};
object ZIPload {
name freezer_4C_2;
schedule_skew -838;
base_power FREEZER*1;
current_fraction 0;
impedance_fraction 0;
power_fraction 1;
current_pf 0.97;
impedance_pf 0.97;
power_pf 0.97;
heat_fraction 0.8;
};
object ZIPload {
name range_4C_2;
schedule_skew -838;
base_power RANGE*1;
current_fraction 0;
impedance_fraction 1;
power_fraction 0;
current_pf 0;
impedance_pf 1;
power_pf 0;
heat_fraction 0.8;
};
object ZIPload {
name microwave_4C_2;
schedule_skew -838;
base_power MICROWAVE*1;
current_fraction 0;
impedance_fraction 0;
power_fraction 1;
current_pf 0.97;
impedance_pf 0.97;
power_pf 0.97;
heat_fraction 0.8;
};
}
object triplex_line {
name triplex_line_4C_3;
phases CS;
from triplex_node_4C;
to triplex_node_4C_3;
length 100 ft;
configuration triplex_line_configuration_1;
}
object triplex_node {
name triplex_node_4C_3;
phases CS;
nominal_voltage 120;
}
object triplex_meter {
name triplex_meter_4C_3;
parent triplex_node_4C_3;
groupid triplex_node_meter4C;
phases CS;
nominal_voltage 120;
}
object house {
name house_4C_3;
parent triplex_meter_4C_3;
air_temperature 72;
mass_temperature 72;
heating_system_type GAS;
cooling_system_type ELECTRIC;
fan_type ONE_SPEED;
thermostat_control NONE;
system_mode COOL;
cooling_COP 4.1;
over_sizing_factor 0.2;
ceiling_height 8;
number_of_stories 2;
aspect_ratio 1.5;
floor_area 2352;
mass_internal_gain_fraction 0.5;
mass_solar_gain_fraction 0.5;
glass_type LOW_E_GLASS;
glazing_layers THREE;
airchange_per_hour 0.5;
Rroof 48;
Rdoors 11;
Rfloor 30;
Rwall 22;
window_frame INSULATED;
exterior_ceiling_fraction 1;
exterior_floor_fraction 1;
exterior_wall_fraction 1;
glazing_treatment HIGH_S;
interior_surface_heat_transfer_coeff 1.46;
interior_exterior_wall_ratio 1.5;
total_thermal_mass_per_floor_area 3.5;
number_of_doors 4;
window_exterior_transmission_coefficient 0.6;
window_wall_ratio 0.15;
object occupantload {
number_of_occupants 1;
occupancy_fraction 1.0;
};
object ZIPload {
name lights_4C_3;
schedule_skew 392;
base_power LIGHTS*2;
current_fraction 0;
impedance_fraction 1;
power_fraction 0;
current_pf 0;
impedance_pf 1;
power_pf 0;
heat_fraction 0.8;
};
object ZIPload {
name clotheswasher_4C_3;
schedule_skew 392;
base_power CLOTHESWASHER*1;
current_fraction 0;
impedance_fraction 0;
power_fraction 1;
current_pf 0.97;
impedance_pf 0.97;
power_pf 0.97;
heat_fraction 0.8;
};
object ZIPload {
name refrigerator_4C_3;
schedule_skew 392;
base_power REFRIGERATOR*1;
current_fraction 0;
impedance_fraction 0;
power_fraction 1;
current_pf 0.97;
impedance_pf 0.97;
power_pf 0.97;
heat_fraction 0.8;
};
object ZIPload {
name dryer_4C_3;
schedule_skew 392;
base_power DRYER*1;
current_fraction 0.1;
impedance_fraction 0.8;
power_fraction 0.1;
current_pf 0.9;
impedance_pf 1.0;
power_pf 0.9;
heat_fraction 0.8;
};
object ZIPload {
name freezer_4C_3;
schedule_skew 392;
base_power FREEZER*1;
current_fraction 0;
impedance_fraction 0;
power_fraction 1;
current_pf 0.97;
impedance_pf 0.97;
power_pf 0.97;
heat_fraction 0.8;
};
object ZIPload {
name range_4C_3;
schedule_skew 392;
base_power RANGE*1;
current_fraction 0;
impedance_fraction 1;
power_fraction 0;
current_pf 0;
impedance_pf 1;
power_pf 0;
heat_fraction 0.8;
};
object ZIPload {
name microwave_4C_3;
schedule_skew 392;
base_power MICROWAVE*1;
current_fraction 0;
impedance_fraction 0;
power_fraction 1;
current_pf 0.97;
impedance_pf 0.97;
power_pf 0.97;
heat_fraction 0.8;
};
}
object triplex_line {
name triplex_line_4C_4;
phases CS;
from triplex_node_4C;
to triplex_node_4C_4;
length 100 ft;
configuration triplex_line_configuration_1;
}
object triplex_node {
name triplex_node_4C_4;
phases CS;
nominal_voltage 120;
}
object triplex_meter {
name triplex_meter_4C_4;
parent triplex_node_4C_4;
groupid triplex_node_meter4C;
phases CS;
nominal_voltage 120;
}
object house {
name house_4C_4;
parent triplex_meter_4C_4;
air_temperature 72;
mass_temperature 72;
heating_system_type GAS;
cooling_system_type ELECTRIC;
fan_type ONE_SPEED;
thermostat_control NONE;
system_mode COOL;
cooling_COP 4.1;
over_sizing_factor 0.2;
ceiling_height 8;
number_of_stories 2;
aspect_ratio 1.5;
floor_area 2352;
mass_internal_gain_fraction 0.5;
mass_solar_gain_fraction 0.5;
glass_type LOW_E_GLASS;
glazing_layers THREE;
airchange_per_hour 0.5;
Rroof 48;
Rdoors 11;
Rfloor 30;
Rwall 22;
window_frame INSULATED;
exterior_ceiling_fraction 1;
exterior_floor_fraction 1;
exterior_wall_fraction 1;
glazing_treatment HIGH_S;
interior_surface_heat_transfer_coeff 1.46;
interior_exterior_wall_ratio 1.5;
total_thermal_mass_per_floor_area 3.5;
number_of_doors 4;
window_exterior_transmission_coefficient 0.6;
window_wall_ratio 0.15;
object occupantload {
number_of_occupants 1;
occupancy_fraction 1.0;
};
object ZIPload {
name lights_4C_4;
schedule_skew 394;
base_power LIGHTS*2;
current_fraction 0;
impedance_fraction 1;
power_fraction 0;
current_pf 0;
impedance_pf 1;
power_pf 0;
heat_fraction 0.8;
};
object ZIPload {
name clotheswasher_4C_4;
schedule_skew 394;
base_power CLOTHESWASHER*1;
current_fraction 0;
impedance_fraction 0;
power_fraction 1;
current_pf 0.97;
impedance_pf 0.97;
power_pf 0.97;
heat_fraction 0.8;
};
object ZIPload {
name refrigerator_4C_4;
schedule_skew 394;
base_power REFRIGERATOR*1;
current_fraction 0;
impedance_fraction 0;
power_fraction 1;
current_pf 0.97;
impedance_pf 0.97;
power_pf 0.97;
heat_fraction 0.8;
};
object ZIPload {
name dryer_4C_4;
schedule_skew 394;
base_power DRYER*1;
current_fraction 0.1;
impedance_fraction 0.8;
power_fraction 0.1;
current_pf 0.9;
impedance_pf 1.0;
power_pf 0.9;
heat_fraction 0.8;
};
object ZIPload {
name freezer_4C_4;
schedule_skew 394;
base_power FREEZER*1;
current_fraction 0;
impedance_fraction 0;
power_fraction 1;
current_pf 0.97;
impedance_pf 0.97;
power_pf 0.97;
heat_fraction 0.8;
};
object ZIPload {
name range_4C_4;
schedule_skew 394;
base_power RANGE*1;
current_fraction 0;
impedance_fraction 1;
power_fraction 0;
current_pf 0;
impedance_pf 1;
power_pf 0;
heat_fraction 0.8;
};
object ZIPload {
name microwave_4C_4;
schedule_skew 394;
base_power MICROWAVE*1;
current_fraction 0;
impedance_fraction 0;
power_fraction 1;
current_pf 0.97;
impedance_pf 0.97;
power_pf 0.97;
heat_fraction 0.8;
};
}
object triplex_line {
name triplex_line_4C_5;
phases CS;
from triplex_node_4C;
to triplex_node_4C_5;
length 100 ft;
configuration triplex_line_configuration_1;
}
object triplex_node {
name triplex_node_4C_5;
phases CS;
nominal_voltage 120;
}
object triplex_meter {
name triplex_meter_4C_5;
parent triplex_node_4C_5;
groupid triplex_node_meter4C;
phases CS;
nominal_voltage 120;
}
object house {
name house_4C_5;
parent triplex_meter_4C_5;
air_temperature 72;
mass_temperature 72;
heating_system_type GAS;
cooling_system_type ELECTRIC;
fan_type ONE_SPEED;
thermostat_control NONE;
system_mode COOL;
cooling_COP 4.1;
over_sizing_factor 0.2;
ceiling_height 8;
number_of_stories 2;
aspect_ratio 1.5;
floor_area 2352;
mass_internal_gain_fraction 0.5;
mass_solar_gain_fraction 0.5;
glass_type LOW_E_GLASS;
glazing_layers THREE;
airchange_per_hour 0.5;
Rroof 48;
Rdoors 11;
Rfloor 30;
Rwall 22;
window_frame INSULATED;
exterior_ceiling_fraction 1;
exterior_floor_fraction 1;
exterior_wall_fraction 1;
glazing_treatment HIGH_S;
interior_surface_heat_transfer_coeff 1.46;
interior_exterior_wall_ratio 1.5;
total_thermal_mass_per_floor_area 3.5;
number_of_doors 4;
window_exterior_transmission_coefficient 0.6;
window_wall_ratio 0.15;
object occupantload {
number_of_occupants 1;
occupancy_fraction 1.0;
};
object ZIPload {
name lights_4C_5;
schedule_skew 70;
base_power LIGHTS*2;
current_fraction 0;
impedance_fraction 1;
power_fraction 0;
current_pf 0;
impedance_pf 1;
power_pf 0;
heat_fraction 0.8;
};
object ZIPload {
name clotheswasher_4C_5;
schedule_skew 70;
base_power CLOTHESWASHER*1;
current_fraction 0;
impedance_fraction 0;
power_fraction 1;
current_pf 0.97;
impedance_pf 0.97;
power_pf 0.97;
heat_fraction 0.8;
};
object ZIPload {
name refrigerator_4C_5;
schedule_skew 70;
base_power REFRIGERATOR*1;
current_fraction 0;
impedance_fraction 0;
power_fraction 1;
current_pf 0.97;
impedance_pf 0.97;
power_pf 0.97;
heat_fraction 0.8;
};
object ZIPload {
name dryer_4C_5;
schedule_skew 70;
base_power DRYER*1;
current_fraction 0.1;
impedance_fraction 0.8;
power_fraction 0.1;
current_pf 0.9;
impedance_pf 1.0;
power_pf 0.9;
heat_fraction 0.8;
};
object ZIPload {
name freezer_4C_5;
schedule_skew 70;
base_power FREEZER*1;
current_fraction 0;
impedance_fraction 0;
power_fraction 1;
current_pf 0.97;
impedance_pf 0.97;
power_pf 0.97;
heat_fraction 0.8;
};
object ZIPload {
name range_4C_5;
schedule_skew 70;
base_power RANGE*1;
current_fraction 0;
impedance_fraction 1;
power_fraction 0;
current_pf 0;
impedance_pf 1;
power_pf 0;
heat_fraction 0.8;
};
object ZIPload {
name microwave_4C_5;
schedule_skew 70;
base_power MICROWAVE*1;
current_fraction 0;
impedance_fraction 0;
power_fraction 1;
current_pf 0.97;
impedance_pf 0.97;
power_pf 0.97;
heat_fraction 0.8;
};
}
object triplex_line {
name triplex_line_4C_6;
phases CS;
from triplex_node_4C;
to triplex_node_4C_6;
length 100 ft;
configuration triplex_line_configuration_1;
}
object triplex_node {
name triplex_node_4C_6;
phases CS;
nominal_voltage 120;
}
object triplex_meter {
name triplex_meter_4C_6;
parent triplex_node_4C_6;
groupid triplex_node_meter4C;
phases CS;
nominal_voltage 120;
}
object house {
name house_4C_6;
parent triplex_meter_4C_6;
air_temperature 72;
mass_temperature 72;
heating_system_type GAS;
cooling_system_type ELECTRIC;
fan_type ONE_SPEED;
thermostat_control NONE;
system_mode COOL;
cooling_COP 4.1;
over_sizing_factor 0.2;
ceiling_height 8;
number_of_stories 2;
aspect_ratio 1.5;
floor_area 2352;
mass_internal_gain_fraction 0.5;
mass_solar_gain_fraction 0.5;
glass_type LOW_E_GLASS;
glazing_layers THREE;
airchange_per_hour 0.5;
Rroof 48;
Rdoors 11;
Rfloor 30;
Rwall 22;
window_frame INSULATED;
exterior_ceiling_fraction 1;
exterior_floor_fraction 1;
exterior_wall_fraction 1;
glazing_treatment HIGH_S;
interior_surface_heat_transfer_coeff 1.46;
interior_exterior_wall_ratio 1.5;
total_thermal_mass_per_floor_area 3.5;
number_of_doors 4;
window_exterior_transmission_coefficient 0.6;
window_wall_ratio 0.15;
object occupantload {
number_of_occupants 1;
occupancy_fraction 1.0;
};
object ZIPload {
name lights_4C_6;
schedule_skew -521;
base_power LIGHTS*2;
current_fraction 0;
impedance_fraction 1;
power_fraction 0;
current_pf 0;
impedance_pf 1;
power_pf 0;
heat_fraction 0.8;
};
object ZIPload {
name clotheswasher_4C_6;
schedule_skew -521;
base_power CLOTHESWASHER*1;
current_fraction 0;
impedance_fraction 0;
power_fraction 1;
current_pf 0.97;
impedance_pf 0.97;
power_pf 0.97;
heat_fraction 0.8;
};
object ZIPload {
name refrigerator_4C_6;
schedule_skew -521;
base_power REFRIGERATOR*1;
current_fraction 0;
impedance_fraction 0;
power_fraction 1;
current_pf 0.97;
impedance_pf 0.97;
power_pf 0.97;
heat_fraction 0.8;
};
object ZIPload {
name dryer_4C_6;
schedule_skew -521;
base_power DRYER*1;
current_fraction 0.1;
impedance_fraction 0.8;
power_fraction 0.1;
current_pf 0.9;
impedance_pf 1.0;
power_pf 0.9;
heat_fraction 0.8;
};
object ZIPload {
name freezer_4C_6;
schedule_skew -521;
base_power FREEZER*1;
current_fraction 0;
impedance_fraction 0;
power_fraction 1;
current_pf 0.97;
impedance_pf 0.97;
power_pf 0.97;
heat_fraction 0.8;
};
object ZIPload {
name range_4C_6;
schedule_skew -521;
base_power RANGE*1;
current_fraction 0;
impedance_fraction 1;
power_fraction 0;
current_pf 0;
impedance_pf 1;
power_pf 0;
heat_fraction 0.8;
};
object ZIPload {
name microwave_4C_6;
schedule_skew -521;
base_power MICROWAVE*1;
current_fraction 0;
impedance_fraction 0;
power_fraction 1;
current_pf 0.97;
impedance_pf 0.97;
power_pf 0.97;
heat_fraction 0.8;
};
}
object triplex_line {
name triplex_line_4C_7;
phases CS;
from triplex_node_4C;
to triplex_node_4C_7;
length 100 ft;
configuration triplex_line_configuration_1;
}
object triplex_node {
name triplex_node_4C_7;
phases CS;
nominal_voltage 120;
}
object triplex_meter {
name triplex_meter_4C_7;
parent triplex_node_4C_7;
groupid triplex_node_meter4C;
phases CS;
nominal_voltage 120;
}
object house {
name house_4C_7;
parent triplex_meter_4C_7;
air_temperature 72;
mass_temperature 72;
heating_system_type GAS;
cooling_system_type ELECTRIC;
fan_type ONE_SPEED;
thermostat_control NONE;
system_mode COOL;
cooling_COP 4.1;
over_sizing_factor 0.2;
ceiling_height 8;
number_of_stories 2;
aspect_ratio 1.5;
floor_area 2352;
mass_internal_gain_fraction 0.5;
mass_solar_gain_fraction 0.5;
glass_type LOW_E_GLASS;
glazing_layers THREE;
airchange_per_hour 0.5;
Rroof 48;
Rdoors 11;
Rfloor 30;
Rwall 22;
window_frame INSULATED;
exterior_ceiling_fraction 1;
exterior_floor_fraction 1;
exterior_wall_fraction 1;
glazing_treatment HIGH_S;
interior_surface_heat_transfer_coeff 1.46;
interior_exterior_wall_ratio 1.5;
total_thermal_mass_per_floor_area 3.5;
number_of_doors 4;
window_exterior_transmission_coefficient 0.6;
window_wall_ratio 0.15;
object occupantload {
number_of_occupants 1;
occupancy_fraction 1.0;
};
object ZIPload {
name lights_4C_7;
schedule_skew 30;
base_power LIGHTS*2;
current_fraction 0;
impedance_fraction 1;
power_fraction 0;
current_pf 0;
impedance_pf 1;
power_pf 0;
heat_fraction 0.8;
};
object ZIPload {
name clotheswasher_4C_7;
schedule_skew 30;
base_power CLOTHESWASHER*1;
current_fraction 0;
impedance_fraction 0;
power_fraction 1;
current_pf 0.97;
impedance_pf 0.97;
power_pf 0.97;
heat_fraction 0.8;
};
object ZIPload {
name refrigerator_4C_7;
schedule_skew 30;
base_power REFRIGERATOR*1;
current_fraction 0;
impedance_fraction 0;
power_fraction 1;
current_pf 0.97;
impedance_pf 0.97;
power_pf 0.97;
heat_fraction 0.8;
};
object ZIPload {
name dryer_4C_7;
schedule_skew 30;
base_power DRYER*1;
current_fraction 0.1;
impedance_fraction 0.8;
power_fraction 0.1;
current_pf 0.9;
impedance_pf 1.0;
power_pf 0.9;
heat_fraction 0.8;
};
object ZIPload {
name freezer_4C_7;
schedule_skew 30;
base_power FREEZER*1;
current_fraction 0;
impedance_fraction 0;
power_fraction 1;
current_pf 0.97;
impedance_pf 0.97;
power_pf 0.97;
heat_fraction 0.8;
};
object ZIPload {
name range_4C_7;
schedule_skew 30;
base_power RANGE*1;
current_fraction 0;
impedance_fraction 1;
power_fraction 0;
current_pf 0;
impedance_pf 1;
power_pf 0;
heat_fraction 0.8;
};
object ZIPload {
name microwave_4C_7;
schedule_skew 30;
base_power MICROWAVE*1;
current_fraction 0;
impedance_fraction 0;
power_fraction 1;
current_pf 0.97;
impedance_pf 0.97;
power_pf 0.97;
heat_fraction 0.8;
};
}
object triplex_line {
name triplex_line_4C_8;
phases CS;
from triplex_node_4C;
to triplex_node_4C_8;
length 100 ft;
configuration triplex_line_configuration_1;
}
object triplex_node {
name triplex_node_4C_8;
phases CS;
nominal_voltage 120;
}
object triplex_meter {
name triplex_meter_4C_8;
parent triplex_node_4C_8;
groupid triplex_node_meter4C;
phases CS;
nominal_voltage 120;
}
object house {
...